'PHREEQC manual; Example 15: 1D transport: Kinetic biodegradation, Cell Growth, and Sorption
# EOS9 flow input
ROCKS----1----*----2----*----3----*----4----*----5----*----6----*----7----*----8
mobil    1     1500.      1.00  1.00E-11  1.00E-11  1.00E-11  0.00E+00     952.9
   4.5e-10                          0.50
biofm    1     1500.      1.00  1.00E-18  1.00E-18  1.00E-18  0.00E+00     952.9
   4.5e-10                          0.30
geoch    1     1500.      0.05  1.00E-18  1.00E-18  1.00E-18  0.00E+00     952.9
   4.5e-10                          0.10
REFCO         1.0E05      4.0     

START----1----*----2----*----3----*----4----*----5----*----6----*----7----*----8
REACT----1MOPR(20)-2----*----3----*----4----*----5----*----6----*----7----*----8
0002
PARAM----1----*-123456789012345678901234----*----5----*----6----*----7----*----8
   29999    9000000000000000020571005000   
 0.00000E0  6.0480E5      -1.0  0.90E+01F   1      -9.806650
    1.0E00                                                                       
    1.E-05                                                                       ! Changed from E-4, Now working with V1.2 
           1.001E+05                 4.0

RPCAP----1----*----2----*----3----*----4----*----5----*----6----*----7----*----8
    1           .333       -.1        1.        0.
    1      9.79020E3      .333        1. 
TIMES----1----*----2----*----3----*----4----*----5----*----6----*----7----*----8
    5
  6.0480E5  1.2096E6  1.3824E6  2.3328E6  3.0240E6
ELEME----1----*----2----*----3----*----4----*----5----*----6----*----7----*----8
F   1    0    1mobil   6.8E-04                         0.001    0.0001    0.0001                      ! the xyz can not be parsed by pytough
F   2    0    1mobil   6.8E-04                         0.003    0.0001    0.0001
F   3    0    1mobil   6.8E-04                         0.005    0.0001    0.0001
F   4    0    1mobil   6.8E-04                         0.007    0.0001    0.0001
F   5    0    1mobil   6.8E-04                         0.009    0.0001    0.0001
F   6    0    1mobil   6.8E-04                         0.011    0.0001    0.0001
F   7    0    1mobil   6.8E-04                         0.013    0.0001    0.0001
F   8    0    1mobil   6.8E-04                         0.015    0.0001    0.0001
F   9    0    1mobil   6.8E-04                         0.017    0.0001    0.0001
F  10    0    1mobil   6.8E-04                         0.019    0.0001    0.0001
F  11    0    1mobil   6.8E-04                         0.021    0.0001    0.0001
F  12    0    1mobil   6.8E-04                         0.023    0.0001    0.0001
F  13    0    1mobil   6.8E-04                         0.025    0.0001    0.0001
F  14    0    1mobil   6.8E-04                         0.027    0.0001    0.0001
F  15    0    1mobil   6.8E-04                         0.029    0.0001    0.0001
F  16    0    1mobil   6.8E-04                         0.031    0.0001    0.0001
F  17    0    1mobil   6.8E-04                         0.033    0.0001    0.0001
F  18    0    1mobil   6.8E-04                         0.035    0.0001    0.0001
F  19    0    1mobil   6.8E-04                         0.037    0.0001    0.0001
F  20    0    1mobil   6.8E-04                         0.039    0.0001    0.0001
F  21    0    1mobil   6.8E-04                         0.041    0.0001    0.0001
F  22    0    1mobil   6.8E-04                         0.043    0.0001    0.0001
F  23    0    1mobil   6.8E-04                         0.045    0.0001    0.0001
F  24    0    1mobil   6.8E-04                         0.047    0.0001    0.0001
F  25    0    1mobil   6.8E-04                         0.049    0.0001    0.0001
F  26    0    1mobil   6.8E-04                         0.051    0.0001    0.0001
F  27    0    1mobil   6.8E-04                         0.053    0.0001    0.0001
F  28    0    1mobil   6.8E-04                         0.055    0.0001    0.0001
F  29    0    1mobil   6.8E-04                         0.057    0.0001    0.0001
F  30    0    1mobil   6.8E-04                         0.059    0.0001    0.0001
F  31    0    1mobil   6.8E-04                         0.061    0.0001    0.0001
F  32    0    1mobil   6.8E-04                         0.063    0.0001    0.0001
F  33    0    1mobil   6.8E-04                         0.065    0.0001    0.0001
F  34    0    1mobil   6.8E-04                         0.067    0.0001    0.0001
F  35    0    1mobil   6.8E-04                         0.069    0.0001    0.0001
F  36    0    1mobil   6.8E-04                         0.071    0.0001    0.0001
F  37    0    1mobil   6.8E-04                         0.073    0.0001    0.0001
F  38    0    1mobil   6.8E-04                         0.075    0.0001    0.0001
F  39    0    1mobil   6.8E-04                         0.077    0.0001    0.0001
F  40    0    1mobil   6.8E-04                         0.079    0.0001    0.0001
F  41    0    1mobil   6.8E-04                         0.081    0.0001    0.0001
F  42    0    1mobil   6.8E-04                         0.083    0.0001    0.0001
F  43    0    1mobil   6.8E-04                         0.085    0.0001    0.0001
F  44    0    1mobil   6.8E-04                         0.087    0.0001    0.0001
F  45    0    1mobil   6.8E-04                         0.089    0.0001    0.0001
F  46    0    1mobil   6.8E-04                         0.091    0.0001    0.0001
F  47    0    1mobil   6.8E-04                         0.093    0.0001    0.0001
F  48    0    1mobil   6.8E-04                         0.095    0.0001    0.0001
F  49    0    1mobil   6.8E-04                         0.097    0.0001    0.0001
F  50    0    1mobil   6.8E-04                         0.099    0.0001    0.0001
F  51    0    1mobil   6.8E-04                         0.101    0.0001    0.0001
F  52    0    1mobil   6.8E-04                         0.103    0.0001    0.0001
F  53    0    1mobil   6.8E-04                         0.105    0.0001    0.0001
F  54    0    1mobil   6.8E-04                         0.107    0.0001    0.0001
F  55    0    1mobil   6.8E-04                         0.109    0.0001    0.0001
B   1    0    1biofm   1.2E-04                         0.001    0.0001    0.0001
B   2    0    1biofm   1.2E-04                         0.003    0.0001    0.0001
B   3    0    1biofm   1.2E-04                         0.005    0.0001    0.0001
B   4    0    1biofm   1.2E-04                         0.007    0.0001    0.0001
B   5    0    1biofm   1.2E-04                         0.009    0.0001    0.0001
B   6    0    1biofm   1.2E-04                         0.011    0.0001    0.0001
B   7    0    1biofm   1.2E-04                         0.013    0.0001    0.0001
B   8    0    1biofm   1.2E-04                         0.015    0.0001    0.0001
B   9    0    1biofm   1.2E-04                         0.017    0.0001    0.0001
B  10    0    1biofm   1.2E-04                         0.019    0.0001    0.0001
B  11    0    1biofm   1.2E-04                         0.021    0.0001    0.0001
B  12    0    1biofm   1.2E-04                         0.023    0.0001    0.0001
B  13    0    1biofm   1.2E-04                         0.025    0.0001    0.0001
B  14    0    1biofm   1.2E-04                         0.027    0.0001    0.0001
B  15    0    1biofm   1.2E-04                         0.029    0.0001    0.0001
B  16    0    1biofm   1.2E-04                         0.031    0.0001    0.0001
B  17    0    1biofm   1.2E-04                         0.033    0.0001    0.0001
B  18    0    1biofm   1.2E-04                         0.035    0.0001    0.0001
B  19    0    1biofm   1.2E-04                         0.037    0.0001    0.0001
B  20    0    1biofm   1.2E-04                         0.039    0.0001    0.0001
B  21    0    1biofm   1.2E-04                         0.041    0.0001    0.0001
B  22    0    1biofm   1.2E-04                         0.043    0.0001    0.0001
B  23    0    1biofm   1.2E-04                         0.045    0.0001    0.0001
B  24    0    1biofm   1.2E-04                         0.047    0.0001    0.0001
B  25    0    1biofm   1.2E-04                         0.049    0.0001    0.0001
B  26    0    1biofm   1.2E-04                         0.051    0.0001    0.0001
B  27    0    1biofm   1.2E-04                         0.053    0.0001    0.0001
B  28    0    1biofm   1.2E-04                         0.055    0.0001    0.0001
B  29    0    1biofm   1.2E-04                         0.057    0.0001    0.0001
B  30    0    1biofm   1.2E-04                         0.059    0.0001    0.0001
B  31    0    1biofm   1.2E-04                         0.061    0.0001    0.0001
B  32    0    1biofm   1.2E-04                         0.063    0.0001    0.0001
B  33    0    1biofm   1.2E-04                         0.065    0.0001    0.0001
B  34    0    1biofm   1.2E-04                         0.067    0.0001    0.0001
B  35    0    1biofm   1.2E-04                         0.069    0.0001    0.0001
B  36    0    1biofm   1.2E-04                         0.071    0.0001    0.0001
B  37    0    1biofm   1.2E-04                         0.073    0.0001    0.0001
B  38    0    1biofm   1.2E-04                         0.075    0.0001    0.0001
B  39    0    1biofm   1.2E-04                         0.077    0.0001    0.0001
B  40    0    1biofm   1.2E-04                         0.079    0.0001    0.0001
B  41    0    1biofm   1.2E-04                         0.081    0.0001    0.0001
B  42    0    1biofm   1.2E-04                         0.083    0.0001    0.0001
B  43    0    1biofm   1.2E-04                         0.085    0.0001    0.0001
B  44    0    1biofm   1.2E-04                         0.087    0.0001    0.0001
B  45    0    1biofm   1.2E-04                         0.089    0.0001    0.0001
B  46    0    1biofm   1.2E-04                         0.091    0.0001    0.0001
B  47    0    1biofm   1.2E-04                         0.093    0.0001    0.0001
B  48    0    1biofm   1.2E-04                         0.095    0.0001    0.0001
B  49    0    1biofm   1.2E-04                         0.097    0.0001    0.0001
B  50    0    1biofm   1.2E-04                         0.099    0.0001    0.0001
B  51    0    1biofm   1.2E-04                         0.101    0.0001    0.0001
B  52    0    1biofm   1.2E-04                         0.103    0.0001    0.0001
B  53    0    1biofm   1.2E-04                         0.105    0.0001    0.0001
B  54    0    1biofm   1.2E-04                         0.107    0.0001    0.0001
B  55    0    1biofm   1.2E-04                         0.109    0.0001    0.0001
G   1    0    1geoch   1.2E-03                         0.001    0.0001    0.0001
G   2    0    1geoch   1.2E-03                         0.003    0.0001    0.0001
G   3    0    1geoch   1.2E-03                         0.005    0.0001    0.0001
G   4    0    1geoch   1.2E-03                         0.007    0.0001    0.0001
G   5    0    1geoch   1.2E-03                         0.009    0.0001    0.0001
G   6    0    1geoch   1.2E-03                         0.011    0.0001    0.0001
G   7    0    1geoch   1.2E-03                         0.013    0.0001    0.0001
G   8    0    1geoch   1.2E-03                         0.015    0.0001    0.0001
G   9    0    1geoch   1.2E-03                         0.017    0.0001    0.0001
G  10    0    1geoch   1.2E-03                         0.019    0.0001    0.0001
G  11    0    1geoch   1.2E-03                         0.021    0.0001    0.0001
G  12    0    1geoch   1.2E-03                         0.023    0.0001    0.0001
G  13    0    1geoch   1.2E-03                         0.025    0.0001    0.0001
G  14    0    1geoch   1.2E-03                         0.027    0.0001    0.0001
G  15    0    1geoch   1.2E-03                         0.029    0.0001    0.0001
G  16    0    1geoch   1.2E-03                         0.031    0.0001    0.0001
G  17    0    1geoch   1.2E-03                         0.033    0.0001    0.0001
G  18    0    1geoch   1.2E-03                         0.035    0.0001    0.0001
G  19    0    1geoch   1.2E-03                         0.037    0.0001    0.0001
G  20    0    1geoch   1.2E-03                         0.039    0.0001    0.0001
G  21    0    1geoch   1.2E-03                         0.041    0.0001    0.0001
G  22    0    1geoch   1.2E-03                         0.043    0.0001    0.0001
G  23    0    1geoch   1.2E-03                         0.045    0.0001    0.0001
G  24    0    1geoch   1.2E-03                         0.047    0.0001    0.0001
G  25    0    1geoch   1.2E-03                         0.049    0.0001    0.0001
G  26    0    1geoch   1.2E-03                         0.051    0.0001    0.0001
G  27    0    1geoch   1.2E-03                         0.053    0.0001    0.0001
G  28    0    1geoch   1.2E-03                         0.055    0.0001    0.0001
G  29    0    1geoch   1.2E-03                         0.057    0.0001    0.0001
G  30    0    1geoch   1.2E-03                         0.059    0.0001    0.0001
G  31    0    1geoch   1.2E-03                         0.061    0.0001    0.0001
G  32    0    1geoch   1.2E-03                         0.063    0.0001    0.0001
G  33    0    1geoch   1.2E-03                         0.065    0.0001    0.0001
G  34    0    1geoch   1.2E-03                         0.067    0.0001    0.0001
G  35    0    1geoch   1.2E-03                         0.069    0.0001    0.0001
G  36    0    1geoch   1.2E-03                         0.071    0.0001    0.0001
G  37    0    1geoch   1.2E-03                         0.073    0.0001    0.0001
G  38    0    1geoch   1.2E-03                         0.075    0.0001    0.0001
G  39    0    1geoch   1.2E-03                         0.077    0.0001    0.0001
G  40    0    1geoch   1.2E-03                         0.079    0.0001    0.0001
G  41    0    1geoch   1.2E-03                         0.081    0.0001    0.0001
G  42    0    1geoch   1.2E-03                         0.083    0.0001    0.0001
G  43    0    1geoch   1.2E-03                         0.085    0.0001    0.0001
G  44    0    1geoch   1.2E-03                         0.087    0.0001    0.0001
G  45    0    1geoch   1.2E-03                         0.089    0.0001    0.0001
G  46    0    1geoch   1.2E-03                         0.091    0.0001    0.0001
G  47    0    1geoch   1.2E-03                         0.093    0.0001    0.0001
G  48    0    1geoch   1.2E-03                         0.095    0.0001    0.0001
G  49    0    1geoch   1.2E-03                         0.097    0.0001    0.0001
G  50    0    1geoch   1.2E-03                         0.099    0.0001    0.0001
G  51    0    1geoch   1.2E-03                         0.101    0.0001    0.0001
G  52    0    1geoch   1.2E-03                         0.103    0.0001    0.0001
G  53    0    1geoch   1.2E-03                         0.105    0.0001    0.0001
G  54    0    1geoch   1.2E-03                         0.107    0.0001    0.0001
G  55    0    1geoch   1.2E-03                         0.109    0.0001    0.0001

CONNE----1----*----2----*----3----*----4----*----5----*----6----*----7----*----8
F   1F   2   53    1    1    1     0.001     0.001      0.34       0.0 
B   1B   2   53    1    1    1     0.001     0.001      0.06       0.0 
G   1G   2   53    1    1    1     0.001     0.001      0.60       0.0 
F   1B   1   54    1    1    1    0.0001    0.0001   7.6E-01       0.0            It doesnot work with this line
B   1G   1   54    1    1    1    0.0001    0.0001   7.6E-01       0.0 

GENER----1----*----2----*----3----*----4----*----5----*----6----*----7----*----8
F   1Q   1                   1     WATE  2.0833E-2                               q=0.020833 kg/s
F  55Q   2                   1     WATE -2.0833E-2                              

INCON----1----*----2----*----3----*----4----*----5----*----6----*----7----*----8

ENDCY

