OPAr2_H2Ol1_2c1 OPA SL/HLW H2 & H20 (it2_5d64q1):Por(wastg)=1.E-4,k(wastc)=1.E-29
* mesh:	opa_mesh2.mes - radially-symmetric mesh
*	r1=0.4m,0.5m - R=75m
*	Thickness: 1.0 m
*       Initial Pressure: Pi=6.5MPa
*         
* Hyd. Parameters.:
*	Opa: 	K= 1.E-13m/s - k=1.E-20m2, Cp=1.83E-9 1/Pa
*		Por=0.12, Pe=1.8E7Pa, n=1.67
*	Bent:	K= 1.E-12m/s - k=1.E-19m2, Cp=3.58E-9 1/Pa
*		Por=0.12, Pe=1.8E7Pa, n=1.82	
*	WP:	K= 1.E-12m/s - k=1.E-19m2, Cp=2.14E-0 1/Pa 
*		Por=0.12, Pe=0., n=2	
* Diffusion: BE=0. (standard), DIFF0=2.13E-5m2/s, TORT=0.5, TEXP=1.8
* H2_l1: k(wastc)=1.E-29m2
*
ROCKS----1----*----2----*----3----*----4----*----5----*----6----*----7----*----8
OPAM1    2     2670.      0.14 0.100E-19 0.100E-19 0.100E-19      2.50     946.5  ! Taken from Rainer
   2.00E-9   3.47E-5      1.50       0.5  6.500E08  
    7         0.4012       0.5       1.0      0.02
    7         0.4012      0.25  5.556e-8     1.e12      1.00
BENT1    2  2700.e00     0.475  1.00e-19  1.00e-19  1.00e-19      1.35     964.0    
   2.00e-9   1.50E-5      0.40       0.5  6.500E08  
    7          .4510       .30        1.       .02                                           
    7          .4510       .15  5.556e-7     1.e12      1.00
BENT2    2  1805.e05     0.350  1.00e-19  1.00e-19  1.00e-19      1.35     964.0    ! 1805.e05
   2.00e-9   1.50E-5      0.01       0.5  6.500E08  
    7          .4510       .30        1.       .02                                           
    7          .4510       .15  5.556e-7     1.e12      1.00

START----1----*----2----*----3----*----4----*----5----*----6----*----7----*----8
MULTI----1----*----2----*----3----*----4----*----5----*----6----*----7----*----8
    2    3    2    8
REACT----1MOPR(20)-2----*----3----*----4----*----5----*----6----*----7----*----8
0002
PARAM----1----*-123456789012345678901234----*----5----*----6----*----7----*----8
   29999    9000000000000120020671203      2.14e-5     2.334       0.0
 0.00000E03.15576E10    1.e-02  8.64E+06A1 10       9.806650
    1.E-06                                                                                              
          6.5000E+06 0.1030000000000E+02 0.3500000000000E+02

RPCAP----1----*----2----*----3----*----4----*----5----*----6----*----7----*----8
    1           .333       -.1        1.        0.
    1      9.79020E3      .333        1. 
TIMES----1----*----2----*----3----*----4----*----5----*----6----*----7----*----8
    8
 3.15576E7 3.15576E8 1.57788E9 3.15576E91.57788E103.15576E109.46728E101.57788E11   
DIFFU----1----*----2----*----3----*----4----*----5----*----6----*----7----*----8
    1.0e-5    1.e-10
    1.0e-5    1.e-10
ELEME----1----*----2----*----3----*----4----*----5----*----6----*----7----*----8
A1  2              30.2827E+000.5655E+00          0.4500E+00          -.5000E+00
A1  3              20.3456E+000.6912E+00          0.5500E+00          -.5000E+00
A1  4              20.8796E+000.1759E+01          0.7000E+00          -.5000E+00
A1  5              20.1131E+010.2262E+01          0.9000E+00          -.5000E+00
A1  6              20.1013E+010.2026E+01          0.1075E+01          -.5000E+00
A1  7              20.7540E+000.1508E+01          0.1200E+01          -.5000E+00
A1  8              10.9608E+000.1922E+01          0.1308E+01          -.5000E+00
A1  9              10.1232E+010.2463E+01          0.1435E+01          -.5000E+00
A1 10              10.1588E+010.3176E+01          0.1583E+01          -.5000E+00
A1 11              10.2059E+010.4118E+01          0.1756E+01          -.5000E+00
A1 12              10.2683E+010.5367E+01          0.1959E+01          -.5000E+00
A1 13              10.3515E+010.7029E+01          0.2195E+01          -.5000E+00
A1 14              10.4625E+010.9250E+01          0.2471E+01          -.5000E+00
A1 15              10.6111E+010.1222E+02          0.2794E+01          -.5000E+00
A1 16              10.8107E+010.1621E+02          0.3172E+01          -.5000E+00
A1 17              10.1079E+020.2159E+02          0.3613E+01          -.5000E+00
A1 18              10.1441E+020.2883E+02          0.4128E+01          -.5000E+00
A1 19              10.1930E+020.3861E+02          0.4731E+01          -.5000E+00
A1 20              10.2592E+020.5184E+02          0.5435E+01          -.5000E+00
A1 21              10.3488E+020.6976E+02          0.6258E+01          -.5000E+00
A1 22              10.4703E+020.9406E+02          0.7220E+01          -.5000E+00
A1 23              10.6352E+020.1270E+03          0.8344E+01          -.5000E+00
A1 24              10.8592E+020.1718E+03          0.9658E+01          -.5000E+00
A1 25              10.1164E+030.2328E+03          0.1119E+02          -.5000E+00
A1 26              10.1578E+030.3157E+03          0.1299E+02          -.5000E+00
A1 27              10.2142E+030.4285E+03          0.1508E+02          -.5000E+00
A1 28              10.2911E+030.5821E+03          0.1754E+02          -.5000E+00
A1 29              10.3957E+030.7915E+03          0.2040E+02          -.5000E+00
A1 30              10.5384E+030.1077E+04          0.2375E+02          -.5000E+00
A1 31              10.7329E+030.1466E+04          0.2766E+02          -.5000E+00
A1 32              10.9982E+030.1996E+04          0.3223E+02          -.5000E+00
A1 33              10.1360E+040.2720E+04          0.3758E+02          -.5000E+00
A1 34              10.1854E+040.3707E+04          0.4382E+02          -.5000E+00
A1 35              10.2527E+040.5055E+04          0.5112E+02          -.5000E+00
A1 36              10.3447E+040.6893E+04          0.5966E+02          -.5000E+00
A1 37              10.4701E+040.9403E+04          0.6963E+02          -.5000E+00
A1 38              10.1000E+540.9403E+04          0.7500E+02          -.5000E+00

CONNE----1----*----2----*----3----*----4----*----5----*----6----*----7----*----8
A1  2A1  3                   10.5000E-010.5000E-010.3142E+01
A1  3A1  4                   10.5000E-010.1000E+000.3770E+01
A1  4A1  5                   10.1000E+000.1000E+000.5027E+01
A1  5A1  6                   10.1000E+000.7500E-010.6283E+01
A1  6A1  7                   10.7500E-010.5000E-010.7226E+01
A1  7A1  8                   10.5000E-010.5844E-010.7854E+01
A1  8A1  9                   10.5844E-010.6829E-010.8588E+01
A1  9A1 10                   10.6829E-010.7982E-010.9447E+01
A1 10A1 11                   10.7982E-010.9328E-010.1045E+02
A1 11A1 12                   10.9328E-010.1090E+000.1162E+02
A1 12A1 13                   10.1090E+000.1274E+000.1299E+02
A1 13A1 14                   10.1274E+000.1489E+000.1459E+02
A1 14A1 15                   10.1489E+000.1740E+000.1646E+02
A1 15A1 16                   10.1740E+000.2034E+000.1865E+02
A1 16A1 17                   10.2034E+000.2377E+000.2121E+02
A1 17A1 18                   10.2377E+000.2778E+000.2419E+02
A1 18A1 19                   10.2778E+000.3247E+000.2769E+02
A1 19A1 20                   10.3247E+000.3795E+000.3177E+02
A1 20A1 21                   10.3795E+000.4435E+000.3653E+02
A1 21A1 22                   10.4435E+000.5183E+000.4211E+02
A1 22A1 23                   10.5183E+000.6058E+000.4862E+02
A1 23A1 24                   10.6058E+000.7080E+000.5623E+02
A1 24A1 25                   10.7080E+000.8274E+000.6513E+02
A1 25A1 26                   10.8274E+000.9670E+000.7553E+02
A1 26A1 27                   10.9670E+000.1130E+010.8768E+02
A1 27A1 28                   10.1130E+010.1321E+010.1019E+03
A1 28A1 29                   10.1321E+010.1544E+010.1185E+03
A1 29A1 30                   10.1544E+010.1804E+010.1379E+03
A1 30A1 31                   10.1804E+010.2109E+010.1606E+03
A1 31A1 32                   10.2109E+010.2464E+010.1870E+03
A1 32A1 33                   10.2464E+010.2880E+010.2180E+03
A1 33A1 34                   10.2880E+010.3366E+010.2542E+03
A1 34A1 35                   10.3366E+010.3934E+010.2965E+03
A1 35A1 36                   10.3934E+010.4598E+010.3459E+03
A1 36A1 37                   10.4598E+010.5373E+010.4037E+03
A1 37A1 38                   10.5373E+010.0000E+010.4712E+03

INDOM----1----*----2----*----3----*----4----*----5----*----6----*----7----*----8
OPAM1
              6.5E+6          0.00000001                 38.
BENT1
          6.5000E+06 0.1082000000000E+02 0.3800000000000E+02                    
    
INCON----1----*----2----*----3----*----4----*----5----*----6----*----7----*----8
A1  2
          6.5000E+06 0.1080000000000E+02 1.5000000000000E+02                     ! Heater

GENER----1----*----2----*----3----*----4----*----5----*----6----*----7----*----8

ENDCY----1----*----2----*----3----*----4----*----5----*----6----*----7----*----8




INDOM----1----*----2----*----3----*----4----*----5----*----6----*----7----*----8
OPAM1
              6.5E+6          0.00000001                 38.
BENT1
          6.5000E+06 0.1082000000000E+02 0.3800000000000E+02                    
    
INCON----1----*----2----*----3----*----4----*----5----*----6----*----7----*----8
A1  2
          6.5000E+06 0.1080000000000E+02 1.5000000000000E+02                     ! Heater
