*EOS9* ... fracture-matrix saturated-unsaturated flow,supergene copper enrichment
ROCKS----1----*----2----*----3----*----4----*----5----*----6----*----7----*----8
POMED    2  2600.e00       .09    1.e-11    1.e-11    1.e-11      2.51      920.     
                                    0.05                                      
    7           .457       .15        1.       .05
    7           .457       .00  5.104e-4      1.e7        1.
FRACT    2  2600.e00       .50    1.e-12    1.e-12    1.e-12      2.51      920.
                                     0.0                                   
    7           .457       .15        1.       .05
    7           .457       .00  1.614e-4      1.e7        1.
MATRX    2  2600.e00       .08    1.e-16   1.0e-16    1.e-16      2.51      920.
                                   0.000                         
    7           .457       .15        1.       .05
    7           .457       .00  4.614e-6      1.e7        1.          1.614e-6
FRACB    2  2600.e00       .50    1.e-12    1.e-12    1.e-12      2.51      920.
                                  1.e-20                                                                           
    7           .457       .15        1.       .05
    7           .457       .00  1.614e-4      1.e7        1.
MATRB    2  2600.e00       .08    1.e-16   1.0e-16    1.e-16      2.51      920.
                                  1.e-20                         
    7           .457       .15        1.       .05
    7           .457       .00  4.614e-6      1.e7        1.          1.614e-6
topbd    2  300.    0.9000    0.6026E-100.6026E-100.6026E-10 1.660    0.1000E+31
                        1.660  1.00                                                 
    1     0.2000    0.3000    0.7000    0.8000                                  
    1                          1.000                                            
REFCO           1.e5       25.     

START----1----*----2----*----3----*----4----*----5----*----6----*----7----*----8
REACT----1MOPR(20)-2----*----3----*----4----*----5----*----6----*----7----*----8
0002
----*----1 MOP: 123456789*123456789*1234----*----5----*----6----*----7----*----8
PARAM----1----*----2----*----3----*----4----*----5----*----6----*----7----*----8
   29999    2000000000100000000400005      2.14e-5     2.334       0.0
          3.15569E08       -1.   4.32+03    1           9.81
      1.e1      2.e1      2.e1      2.e1      2.e1      2.e1      2.e1   2.0e01
    1.E-05
               1.5e5                 0.0                 20.
RPCAP----1----*----2----*----3----*----4----*----5----*----6----*----7----*----8
    3            .30       .05
    1             0.        0.        1.
TIMES----1----*----2----*----3----*----4----*----5----*----6----*----7----*----8
    4
 3.15569E7 3.15569E8 3.15569E93.15569E10
ELEME----1----*----2----*----3----*----4----*----5----*----6----*----7----*----8
TOP 0          topbd .2000E+31 .0000E+00           .0000E+00-.0000E+00 .0000E+00
    1              2 .2000E-01 .0000E+00           .0000E+00-.1000E+01 .0000E+00
2   1              3 .4000E-01 .0000E+00           .2538E+00-.1000E+01 .0000E+00
3   1              3 .1000E+00 .0000E+00           .9000E+00-.1000E+01 .0000E+00
4   1              3 .2000E+00 .0000E+00           .2247E+01-.1000E+01 .0000E+00
5   1              3 .4000E+00 .0000E+00           .5215E+01-.1000E+01 .0000E+00
6   1              3 .6000E+00 .0000E+00           .1079E+02-.1000E+01 .0000E+00
7   1              3 .6400E+00 .0000E+00           .1434E+02-.1000E+01 .0000E+00
    2              2 .2000E-01 .0000E+00           .0000E+00-.3000E+01 .0000E+00
2   2              3 .4000E-01 .0000E+00           .2538E+00-.3000E+01 .0000E+00
3   2              3 .1000E+00 .0000E+00           .9000E+00-.3000E+01 .0000E+00
4   2              3 .2000E+00 .0000E+00           .2247E+01-.3000E+01 .0000E+00
5   2              3 .4000E+00 .0000E+00           .5215E+01-.3000E+01 .0000E+00
6   2              3 .6000E+00 .0000E+00           .1079E+02-.3000E+01 .0000E+00
7   2              3 .6400E+00 .0000E+00           .1434E+02-.3000E+01 .0000E+00
    3              2 .2000E-01 .0000E+00           .0000E+00-.5000E+01 .0000E+00
2   3              3 .4000E-01 .0000E+00           .2538E+00-.5000E+01 .0000E+00
3   3              3 .1000E+00 .0000E+00           .9000E+00-.5000E+01 .0000E+00
4   3              3 .2000E+00 .0000E+00           .2247E+01-.5000E+01 .0000E+00
5   3              3 .4000E+00 .0000E+00           .5215E+01-.5000E+01 .0000E+00
6   3              3 .6000E+00 .0000E+00           .1079E+02-.5000E+01 .0000E+00
7   3              3 .6400E+00 .0000E+00           .1434E+02-.5000E+01 .0000E+00
    4              2 .2000E-01 .0000E+00           .0000E+00-.7000E+01 .0000E+00
2   4              3 .4000E-01 .0000E+00           .2538E+00-.7000E+01 .0000E+00
3   4              3 .1000E+00 .0000E+00           .9000E+00-.7000E+01 .0000E+00
4   4              3 .2000E+00 .0000E+00           .2247E+01-.7000E+01 .0000E+00
5   4              3 .4000E+00 .0000E+00           .5215E+01-.7000E+01 .0000E+00
6   4              3 .6000E+00 .0000E+00           .1079E+02-.7000E+01 .0000E+00
7   4              3 .6400E+00 .0000E+00           .1434E+02-.7000E+01 .0000E+00
    5              2 .2000E-01 .0000E+00           .0000E+00-.9000E+01 .0000E+00
2   5              3 .4000E-01 .0000E+00           .2538E+00-.9000E+01 .0000E+00
3   5              3 .1000E+00 .0000E+00           .9000E+00-.9000E+01 .0000E+00
4   5              3 .2000E+00 .0000E+00           .2247E+01-.9000E+01 .0000E+00
5   5              3 .4000E+00 .0000E+00           .5215E+01-.9000E+01 .0000E+00
6   5              3 .6000E+00 .0000E+00           .1079E+02-.9000E+01 .0000E+00
7   5              3 .6400E+00 .0000E+00           .1434E+02-.9000E+01 .0000E+00
    6              2 .2000E-01 .0000E+00           .0000E+00-.1100E+02 .0000E+00
2   6              3 .4000E-01 .0000E+00           .2538E+00-.1100E+02 .0000E+00
3   6              3 .1000E+00 .0000E+00           .9000E+00-.1100E+02 .0000E+00
4   6              3 .2000E+00 .0000E+00           .2247E+01-.1100E+02 .0000E+00
5   6              3 .4000E+00 .0000E+00           .5215E+01-.1100E+02 .0000E+00
6   6              3 .6000E+00 .0000E+00           .1079E+02-.1100E+02 .0000E+00
7   6              3 .6400E+00 .0000E+00           .1434E+02-.1100E+02 .0000E+00
    7              2 .2000E-01 .0000E+00           .0000E+00-.1300E+02 .0000E+00
2   7              3 .4000E-01 .0000E+00           .2538E+00-.1300E+02 .0000E+00
3   7              3 .1000E+00 .0000E+00           .9000E+00-.1300E+02 .0000E+00
4   7              3 .2000E+00 .0000E+00           .2247E+01-.1300E+02 .0000E+00
5   7              3 .4000E+00 .0000E+00           .5215E+01-.1300E+02 .0000E+00
6   7              3 .6000E+00 .0000E+00           .1079E+02-.1300E+02 .0000E+00
7   7              3 .6400E+00 .0000E+00           .1434E+02-.1300E+02 .0000E+00
    8              2 .2000E-01 .0000E+00           .0000E+00-.1500E+02 .0000E+00
2   8              3 .4000E-01 .0000E+00           .2538E+00-.1500E+02 .0000E+00
3   8              3 .1000E+00 .0000E+00           .9000E+00-.1500E+02 .0000E+00
4   8              3 .2000E+00 .0000E+00           .2247E+01-.1500E+02 .0000E+00
5   8              3 .4000E+00 .0000E+00           .5215E+01-.1500E+02 .0000E+00
6   8              3 .6000E+00 .0000E+00           .1079E+02-.1500E+02 .0000E+00
7   8              3 .6400E+00 .0000E+00           .1434E+02-.1500E+02 .0000E+00
    9              2 .2000E-01 .0000E+00           .0000E+00-.1700E+02 .0000E+00
2   9              3 .4000E-01 .0000E+00           .2538E+00-.1700E+02 .0000E+00
3   9              3 .1000E+00 .0000E+00           .9000E+00-.1700E+02 .0000E+00
4   9              3 .2000E+00 .0000E+00           .2247E+01-.1700E+02 .0000E+00
5   9              3 .4000E+00 .0000E+00           .5215E+01-.1700E+02 .0000E+00
6   9              3 .6000E+00 .0000E+00           .1079E+02-.1700E+02 .0000E+00
7   9              3 .6400E+00 .0000E+00           .1434E+02-.1700E+02 .0000E+00
   10              2 .2000E-01 .0000E+00           .0000E+00-.1900E+02 .0000E+00
2  10              3 .4000E-01 .0000E+00           .2538E+00-.1900E+02 .0000E+00
3  10              3 .1000E+00 .0000E+00           .9000E+00-.1900E+02 .0000E+00
4  10              3 .2000E+00 .0000E+00           .2247E+01-.1900E+02 .0000E+00
5  10              3 .4000E+00 .0000E+00           .5215E+01-.1900E+02 .0000E+00
6  10              3 .6000E+00 .0000E+00           .1079E+02-.1900E+02 .0000E+00
7  10              3 .6400E+00 .0000E+00           .1434E+02-.1900E+02 .0000E+00
wta 1              4 1.000E+20 .0000E+00           .0000E+00-.2000E+02 .0000E+00
wta 2              5 1.000E+20 .0000E+00           .2538E+00-.2000E+02 .0000E+00
wta 3              5 1.000E+20 .0000E+00           .9000E+00-.2000E+02 .0000E+00
wta 4              5 1.000E+20 .0000E+00           .2247E+01-.2000E+02 .0000E+00
wta 5              5 1.000E+20 .0000E+00           .5215E+01-.2000E+02 .0000E+00
wta 6              5 1.000E+20 .0000E+00           .1079E+02-.2000E+02 .0000E+00
wta 7              5 1.000E+20 .0000E+00           .1434E+02-.2000E+02 .0000E+00
     
CONNE----1----*----2----*----3----*----4----*----5----*----6----*----7----*----8
TOP 0    1                   3 .1000E-05 .1000E+01 .1000E+01 .1000E+01
TOP 02   1                   3 .1000E-05 .1000E+01 .2000E-01 .1000E+01
TOP 03   1                   3 .1000E-05 .1000E+01 .5000E-01 .1000E+01
TOP 04   1                   3 .1000E-05 .1000E+01 .1000E+00 .1000E+01
TOP 05   1                   3 .1000E-05 .1000E+01 .2000E+00 .1000E+01
TOP 06   1                   3 .1000E-05 .1000E+01 .3000E+00 .1000E+01
TOP 07   1                   3 .1000E-05 .1000E+01 .3200E+00 .1000E+01
    1    2                   3 .1000E+01 .1000E+01 .1000E+01 .1000E+01
2   12   2                   3 .1000E+01 .1000E+01 .2000E-01 .1000E+01
3   13   2                   3 .1000E+01 .1000E+01 .5000E-01 .1000E+01
4   14   2                   3 .1000E+01 .1000E+01 .1000E+00 .1000E+01
5   15   2                   3 .1000E+01 .1000E+01 .2000E+00 .1000E+01
6   16   2                   3 .1000E+01 .1000E+01 .3000E+00 .1000E+01
7   17   2                   3 .1000E+01 .1000E+01 .3200E+00 .1000E+01
    2    3                   3 .1000E+01 .1000E+01 .1000E+01 .1000E+01
2   22   3                   3 .1000E+01 .1000E+01 .2000E-01 .1000E+01
3   23   3                   3 .1000E+01 .1000E+01 .5000E-01 .1000E+01
4   24   3                   3 .1000E+01 .1000E+01 .1000E+00 .1000E+01
5   25   3                   3 .1000E+01 .1000E+01 .2000E+00 .1000E+01
6   26   3                   3 .1000E+01 .1000E+01 .3000E+00 .1000E+01
7   27   3                   3 .1000E+01 .1000E+01 .3200E+00 .1000E+01
    3    4                   3 .1000E+01 .1000E+01 .1000E+01 .1000E+01
2   32   4                   3 .1000E+01 .1000E+01 .2000E-01 .1000E+01
3   33   4                   3 .1000E+01 .1000E+01 .5000E-01 .1000E+01
4   34   4                   3 .1000E+01 .1000E+01 .1000E+00 .1000E+01
5   35   4                   3 .1000E+01 .1000E+01 .2000E+00 .1000E+01
6   36   4                   3 .1000E+01 .1000E+01 .3000E+00 .1000E+01
7   37   4                   3 .1000E+01 .1000E+01 .3200E+00 .1000E+01
    4    5                   3 .1000E+01 .1000E+01 .1000E+01 .1000E+01
2   42   5                   3 .1000E+01 .1000E+01 .2000E-01 .1000E+01
3   43   5                   3 .1000E+01 .1000E+01 .5000E-01 .1000E+01
4   44   5                   3 .1000E+01 .1000E+01 .1000E+00 .1000E+01
5   45   5                   3 .1000E+01 .1000E+01 .2000E+00 .1000E+01
6   46   5                   3 .1000E+01 .1000E+01 .3000E+00 .1000E+01
7   47   5                   3 .1000E+01 .1000E+01 .3200E+00 .1000E+01
    5    6                   3 .1000E+01 .1000E+01 .1000E+01 .1000E+01
2   52   6                   3 .1000E+01 .1000E+01 .2000E-01 .1000E+01
3   53   6                   3 .1000E+01 .1000E+01 .5000E-01 .1000E+01
4   54   6                   3 .1000E+01 .1000E+01 .1000E+00 .1000E+01
5   55   6                   3 .1000E+01 .1000E+01 .2000E+00 .1000E+01
6   56   6                   3 .1000E+01 .1000E+01 .3000E+00 .1000E+01
7   57   6                   3 .1000E+01 .1000E+01 .3200E+00 .1000E+01
    6    7                   3 .1000E+01 .1000E+01 .1000E+01 .1000E+01
2   62   7                   3 .1000E+01 .1000E+01 .2000E-01 .1000E+01
3   63   7                   3 .1000E+01 .1000E+01 .5000E-01 .1000E+01
4   64   7                   3 .1000E+01 .1000E+01 .1000E+00 .1000E+01
5   65   7                   3 .1000E+01 .1000E+01 .2000E+00 .1000E+01
6   66   7                   3 .1000E+01 .1000E+01 .3000E+00 .1000E+01
7   67   7                   3 .1000E+01 .1000E+01 .3200E+00 .1000E+01
    7    8                   3 .1000E+01 .1000E+01 .1000E+01 .1000E+01
2   72   8                   3 .1000E+01 .1000E+01 .2000E-01 .1000E+01
3   73   8                   3 .1000E+01 .1000E+01 .5000E-01 .1000E+01
4   74   8                   3 .1000E+01 .1000E+01 .1000E+00 .1000E+01
5   75   8                   3 .1000E+01 .1000E+01 .2000E+00 .1000E+01
6   76   8                   3 .1000E+01 .1000E+01 .3000E+00 .1000E+01
7   77   8                   3 .1000E+01 .1000E+01 .3200E+00 .1000E+01
    8    9                   3 .1000E+01 .1000E+01 .1000E+01 .1000E+01
2   82   9                   3 .1000E+01 .1000E+01 .2000E-01 .1000E+01
3   83   9                   3 .1000E+01 .1000E+01 .5000E-01 .1000E+01
4   84   9                   3 .1000E+01 .1000E+01 .1000E+00 .1000E+01
5   85   9                   3 .1000E+01 .1000E+01 .2000E+00 .1000E+01
6   86   9                   3 .1000E+01 .1000E+01 .3000E+00 .1000E+01
7   87   9                   3 .1000E+01 .1000E+01 .3200E+00 .1000E+01
    9   10                   3 .1000E+01 .1000E+01 .1000E+01 .1000E+01
2   92  10                   3 .1000E+01 .1000E+01 .2000E-01 .1000E+01
3   93  10                   3 .1000E+01 .1000E+01 .5000E-01 .1000E+01
4   94  10                   3 .1000E+01 .1000E+01 .1000E+00 .1000E+01
5   95  10                   3 .1000E+01 .1000E+01 .2000E+00 .1000E+01
6   96  10                   3 .1000E+01 .1000E+01 .3000E+00 .1000E+01
7   97  10                   3 .1000E+01 .1000E+01 .3200E+00 .1000E+01
   10wta 1                   3 .1000E+01 .1000E-02 .1000E+01 .1000E+01
2  10wta 2                   3 .1000E+01 .1000E-02 .2000E-01 .1000E+01
3  10wta 3                   3 .1000E+01 .1000E-02 .5000E-01 .1000E+01
4  10wta 4                   3 .1000E+01 .1000E-02 .1000E+00 .1000E+01
5  10wta 5                   3 .1000E+01 .1000E-02 .2000E+00 .1000E+01
6  10wta 6                   3 .1000E+01 .1000E-02 .3000E+00 .1000E+01
7  10wta 7                   3 .1000E+01 .1000E-02 .3200E+00 .1000E+01
    12   1                   1 .0000E+00 .1269E-02 .1584E+02
2   13   1                   1 .1269E-02 .3231E-02 .1568E+02
3   14   1                   1 .3231E-02 .6737E-02 .1527E+02
4   15   1                   1 .6737E-02 .1484E-01 .1442E+02
5   16   1                   1 .1484E-01 .2785E-01 .1254E+02
6   17   1                   1 .2785E-01 .3553E-01 .9006E+01
    22   2                   1 .0000E+00 .1269E-02 .1584E+02
2   23   2                   1 .1269E-02 .3231E-02 .1568E+02
3   24   2                   1 .3231E-02 .6737E-02 .1527E+02
4   25   2                   1 .6737E-02 .1484E-01 .1442E+02
5   26   2                   1 .1484E-01 .2785E-01 .1254E+02
6   27   2                   1 .2785E-01 .3553E-01 .9006E+01
    32   3                   1 .0000E+00 .1269E-02 .1584E+02
2   33   3                   1 .1269E-02 .3231E-02 .1568E+02
3   34   3                   1 .3231E-02 .6737E-02 .1527E+02
4   35   3                   1 .6737E-02 .1484E-01 .1442E+02
5   36   3                   1 .1484E-01 .2785E-01 .1254E+02
6   37   3                   1 .2785E-01 .3553E-01 .9006E+01
    42   4                   1 .0000E+00 .1269E-02 .1584E+02
2   43   4                   1 .1269E-02 .3231E-02 .1568E+02
3   44   4                   1 .3231E-02 .6737E-02 .1527E+02
4   45   4                   1 .6737E-02 .1484E-01 .1442E+02
5   46   4                   1 .1484E-01 .2785E-01 .1254E+02
6   47   4                   1 .2785E-01 .3553E-01 .9006E+01
    52   5                   1 .0000E+00 .1269E-02 .1584E+02
2   53   5                   1 .1269E-02 .3231E-02 .1568E+02
3   54   5                   1 .3231E-02 .6737E-02 .1527E+02
4   55   5                   1 .6737E-02 .1484E-01 .1442E+02
5   56   5                   1 .1484E-01 .2785E-01 .1254E+02
6   57   5                   1 .2785E-01 .3553E-01 .9006E+01
    62   6                   1 .0000E+00 .1269E-02 .1584E+02
2   63   6                   1 .1269E-02 .3231E-02 .1568E+02
3   64   6                   1 .3231E-02 .6737E-02 .1527E+02
4   65   6                   1 .6737E-02 .1484E-01 .1442E+02
5   66   6                   1 .1484E-01 .2785E-01 .1254E+02
6   67   6                   1 .2785E-01 .3553E-01 .9006E+01
    72   7                   1 .0000E+00 .1269E-02 .1584E+02
2   73   7                   1 .1269E-02 .3231E-02 .1568E+02
3   74   7                   1 .3231E-02 .6737E-02 .1527E+02
4   75   7                   1 .6737E-02 .1484E-01 .1442E+02
5   76   7                   1 .1484E-01 .2785E-01 .1254E+02
6   77   7                   1 .2785E-01 .3553E-01 .9006E+01
    82   8                   1 .0000E+00 .1269E-02 .1584E+02
2   83   8                   1 .1269E-02 .3231E-02 .1568E+02
3   84   8                   1 .3231E-02 .6737E-02 .1527E+02
4   85   8                   1 .6737E-02 .1484E-01 .1442E+02
5   86   8                   1 .1484E-01 .2785E-01 .1254E+02
6   87   8                   1 .2785E-01 .3553E-01 .9006E+01
    92   9                   1 .0000E+00 .1269E-02 .1584E+02
2   93   9                   1 .1269E-02 .3231E-02 .1568E+02
3   94   9                   1 .3231E-02 .6737E-02 .1527E+02
4   95   9                   1 .6737E-02 .1484E-01 .1442E+02
5   96   9                   1 .1484E-01 .2785E-01 .1254E+02
6   97   9                   1 .2785E-01 .3553E-01 .9006E+01
   102  10                   1 .0000E+00 .1269E-02 .1584E+02
2  103  10                   1 .1269E-02 .3231E-02 .1568E+02
3  104  10                   1 .3231E-02 .6737E-02 .1527E+02
4  105  10                   1 .6737E-02 .1484E-01 .1442E+02
5  106  10                   1 .1484E-01 .2785E-01 .1254E+02
6  107  10                   1 .2785E-01 .3553E-01 .9006E+01

INCON----1----*----2----*----3----*----4----*----5----*----6----*----7----*----8
TOP 0            .90000000E+00
  .0293220293790E+00
    1            .50000000E+00
  .2693220293790E+00
2   1            .80000000E-01
  .9761550688983E+00
3   1            .80000000E-01
  .9761535560800E+00
4   1            .80000000E-01
  .9761502925233E+00
5   1            .80000000E-01
  .9761436252476E+00
6   1            .80000000E-01
  .9761321576113E+00
7   1            .80000000E-01
  .9761199238426E+00
    2            .50000000E+00
  .2579789593416E+00
2   2            .80000000E-01
  .9832832294702E+00
3   2            .80000000E-01
  .9832829441297E+00
4   2            .80000000E-01
  .9832823283708E+00
5   2            .80000000E-01
  .9832810695852E+00
6   2            .80000000E-01
  .9832789016681E+00
7   2            .80000000E-01
  .9832765848626E+00  
    3            .50000000E+00
  .2647280495922E+00 
2   3            .80000000E-01
  .9884495215425E+00
3   3            .80000000E-01
  .9884494953234E+00
4   3            .80000000E-01
  .9884494388337E+00
5   3            .80000000E-01
  .9884493237223E+00
6   3            .80000000E-01
  .9884491267322E+00
7   3            .80000000E-01
  .9884489180408E+00
    4            .50000000E+00
  .3292275213631E+00
2   4            .80000000E-01
  .9932714833684E+00
3   4            .80000000E-01
  .9932719171775E+00
4   4            .80000000E-01
  .9932728528655E+00
5   4            .80000000E-01
  .9932747637717E+00
6   4            .80000000E-01
  .9932780483967E+00
7   4            .80000000E-01
  .9932815494189E+00
    5            .50000000E+00
  .6643979751727E+00 
2   5            .80000000E-01
  .9990189252781E+00 
3   5            .80000000E-01
  .9990189728168E+00
4   5            .80000000E-01
  .9990190753714E+00
5   5            .80000000E-01
  .9990192848874E+00
6   5            .80000000E-01
  .9990196452601E+00
7   5            .80000000E-01
  .9990200297089E+00
    6            .50000000E+00
  .1119528268258E+06
2   6            .80000000E-01
  .1119528284617E+06
3   6            .80000000E-01
  .1119528342228E+06
4   6            .80000000E-01
  .1119528467565E+06  
5   6            .80000000E-01
  .1119528727921E+06 
6   6            .80000000E-01
  .1119529190409E+06
7   6            .80000000E-01
  .1119529705144E+06 
    7            .50000000E+00
  .1315163902471E+06 
2   7            .80000000E-01
  .1315163902505E+06 
3   7            .80000000E-01
  .1315163902627E+06
4   7            .80000000E-01
  .1315163902902E+06
5   7            .80000000E-01
  .1315163903519E+06 
6   7            .80000000E-01
  .1315163904766E+06 
7   7            .80000000E-01
  .1315163906375E+06 
    8            .50000000E+00
  .1510801258074E+06 
2   8            .80000000E-01
  .1510801258074E+06 
3   8            .80000000E-01
  .1510801258075E+06 
4   8            .80000000E-01
  .1510801258075E+06 
5   8            .80000000E-01
  .1510801258077E+06 
6   8            .80000000E-01
  .1510801258080E+06 
7   8            .80000000E-01
  .1510801258085E+06 
    9            .50000000E+00
  .1706440335182E+06 
2   9            .80000000E-01
  .1706440335182E+06 
3   9            .80000000E-01
  .1706440335182E+06 
4   9            .80000000E-01
  .1706440335182E+06 
5   9            .80000000E-01
  .1706440335182E+06 
6   9            .80000000E-01
  .1706440335182E+06 
7   9            .80000000E-01
  .1706440335182E+06
   10            .50000000E+00
  .1902081133824E+06 
2  10            .80000000E-01
  .1902081133824E+06 
3  10            .80000000E-01
  .1902081133824E+06 
4  10            .80000000E-01
  .1902081133824E+06 
5  10            .80000000E-01
  .1902081133824E+06 
6  10            .80000000E-01
  .1902081133824E+06 
7  10            .80000000E-01
  .1902081133824E+06 
wta 1            .90000000E-01
  .2000000000000E+06  
wta 2            .90000000E-01
  .2000000000000E+06 
wta 3            .90000000E-01
  .2000000000000E+06 
wta 4            .90000000E-01
  .2000000000000E+06 
wta 5            .90000000E-01
  .2000000000000E+06 
wta 6            .90000000E-01
  .2000000000000E+06 
wta 7            .90000000E-01
  .2000000000000E+06 

GENER----1----*----2----*----3----*----4----*----5----*----6----*----7----*----8
    1inf 1                         WATE     .50e-6                               15 mm/y

ENDCY----1----*----2----*----3----*----4----*----5----*----6----*----7----*----8



